17

C      -0.97970000       0.13380000       0.00370000
C       0.29690000       0.66220000      -0.00180000
C      -1.15980000      -1.24160000       0.01320000
C       1.39420000      -0.17860000       0.00210000
C      -0.05680000      -2.08330000       0.01710000
C       1.21740000      -1.55010000       0.01110000
O      -2.41450000      -1.76370000       0.01920000
N      -2.15430000       1.03460000       0.00570000
O      -1.99560000       2.24220000      -0.00260000
O      -3.27940000       0.56830000       0.01570000
N       2.76080000       0.39010000      -0.00390000
O       2.91770000       1.59790000      -0.01230000
O       3.72840000      -0.34970000      -0.00050000
H       0.43760000       1.73290000      -0.00960000
H      -0.19430000      -3.15450000       0.02490000
H       2.07630000      -2.20490000       0.01370000
H      -2.67430000      -1.87730000      -0.90530000
