20

C       0.69120000       1.46760000       0.13870000
C      -0.22760000       0.47530000      -0.17620000
C       2.03510000       1.16190000       0.22390000
C       0.20570000      -0.82380000      -0.40520000
C       2.46730000      -0.13630000      -0.00500000
C       1.54990000      -1.12810000      -0.31960000
O       3.79080000      -0.43650000       0.07860000
N      -1.59140000       0.78470000      -0.26240000
C      -2.51380000      -0.12880000       0.09960000
O      -2.16480000      -1.18050000       0.59290000
C      -3.97890000       0.15640000      -0.10850000
H       0.35530000       2.47920000       0.31250000
H       2.74990000       1.93370000       0.46840000
H      -0.50840000      -1.59610000      -0.64980000
H       1.88710000      -2.13860000      -0.49770000
H       3.96240000      -0.69040000       0.99580000
H      -1.87160000       1.65640000      -0.58250000
H      -4.28130000      -0.19680000      -1.09430000
H      -4.56130000      -0.35770000       0.65610000
H      -4.15360000       1.23000000      -0.03780000
